OPT_V9/4ts_w_storgae_myc/powerflow_results_t3.txt
Pandapower Network Debug Info
==================================================

BUS:
       vm_pu  va_degree      p_mw    q_mvar
0   1.001512   0.209354 -0.006922 -0.000265
1   1.002387   0.247420  0.001408  0.001609
2   1.006127   0.279079 -0.002886 -0.001634
3   0.997991   0.266922  0.002544  0.003487
4   1.002462   0.222274 -0.001681  0.000431
5   1.003322   0.232183 -0.002420  0.002091
6   1.006439   0.287035 -0.002780 -0.001057
7   1.002462   0.252456 -0.005420  0.002137
8   1.000831   0.101210 -0.006201  0.003020
9   0.999937   0.002481  0.003799  0.010190
10  0.999929   0.002730  0.002995  0.007490
11  0.999920   0.002937  0.006735  0.012651
12  0.999939   0.006871 -0.000044  0.007044
13  0.999920   0.007337  0.004699  0.009072
14  0.999926   0.007185  0.006175  0.013919
15  0.999966   0.001605  0.000000  0.000000
16  0.999966   0.001607  0.000000  0.000000
17  0.999941   0.006731  0.000000  0.000000
18  0.999942   0.006735  0.000000  0.000000
19  1.000000   0.000000 -0.007740 -0.038565
20  1.000000   0.000005  0.000000  0.000000
21  1.000000   0.000000  0.007581 -0.041715
22  1.000000   0.000006  0.000000  0.000000
--------------------------------------------------

LINE:
    p_from_mw  q_from_mvar   p_to_mw  q_to_mvar         pl_mw       ql_mvar  i_from_ka   i_to_ka      i_ka  vm_from_pu  va_from_degree  vm_to_pu  va_to_degree  loading_percent
0    0.007730     0.034565 -0.007729  -0.034564  1.227041e-06  9.567441e-07   0.001363  0.001363  0.001363    1.000000        0.000005  0.999966      0.001605         0.592722
1   -0.007591     0.037715  0.007595  -0.037712  3.981034e-06  3.104078e-06   0.001481  0.001481  0.001481    1.000000        0.000006  0.999941      0.006731         0.643803
2    0.013530     0.030332 -0.013530  -0.030331  8.530527e-07  6.651392e-07   0.001278  0.001278  0.001278    0.999966        0.001605  0.999937      0.002481         0.555826
3   -0.000044     0.007044  0.000044  -0.007044  1.716299e-08  1.338226e-08   0.000271  0.000271  0.000271    0.999941        0.006731  0.999939      0.006871         0.117894
4    0.010874     0.022992 -0.010874  -0.022992  3.537509e-07  2.758254e-07   0.000979  0.000979  0.000979    0.999941        0.006731  0.999926      0.007185         0.425655
5   -0.005812     0.003232  0.005832  -0.003216  2.068537e-05  1.612872e-05   0.009599  0.009599  0.009599    0.999966        0.001607  1.001512      0.209354         4.173399
6   -0.005171     0.001057  0.005192  -0.001040  2.161146e-05  1.685081e-05   0.007618  0.007618  0.007618    0.999942        0.006735  1.003322      0.232183         3.312180
7   -0.005397     0.002155  0.005420  -0.002137  2.282024e-05  1.779332e-05   0.008389  0.008389  0.008389    0.999942        0.006735  1.002462      0.252456         3.647242
8   -0.007866     0.003464  0.007879  -0.003454  1.270389e-05  9.905435e-06   0.012407  0.012407  0.012407    0.999942        0.006735  1.000831      0.101210         5.394295
9   -0.009730    -0.020141  0.009731   0.020141  1.730548e-07  1.349337e-07   0.000861  0.000861  0.000861    0.999929        0.002730  0.999937      0.002481         0.374357
10  -0.006735    -0.012651  0.006736   0.012651  1.004769e-07  7.834351e-08   0.000552  0.000552  0.000552    0.999920        0.002937  0.999929      0.002730         0.239866
11   0.004699     0.009072 -0.004699  -0.009072  5.105920e-08  3.981170e-08   0.000393  0.000393  0.000393    0.999926        0.007185  0.999920      0.007337         0.170991
12   0.001468     0.000018 -0.001467  -0.000017  1.269661e-06  9.899759e-07   0.002114  0.002114  0.002114    1.002387        0.247420  1.001512      0.209354         0.919332
13  -0.002544    -0.003487  0.002556   0.003497  1.249089e-05  9.739354e-06   0.006243  0.006243  0.006243    0.997991        0.266922  1.001512      0.209354         2.714330
14   0.002886     0.001634 -0.002876  -0.001626  9.828106e-06  7.663136e-06   0.004758  0.004758  0.004758    1.006127        0.279079  1.002387      0.247420         2.068520
15  -0.001678     0.000434  0.001681  -0.000431  3.648258e-06  2.844607e-06   0.002499  0.002499  0.002499    1.000831        0.101210  1.002462      0.222274         1.086658
16   0.002780     0.001057 -0.002772  -0.001051  7.602619e-06  5.927887e-06   0.004265  0.004265  0.004265    1.006439        0.287035  1.003322      0.232183         1.854464
--------------------------------------------------

TRAFO:
    p_hv_mw  q_hv_mvar   p_lv_mw  q_lv_mvar    pl_mw  ql_mvar   i_hv_ka   i_lv_ka  vm_hv_pu  va_hv_degree  vm_lv_pu  va_lv_degree  loading_percent
0 -0.005802   0.004232  0.005812  -0.003232  0.00001    0.001  0.000276  0.009599  0.999966      0.001605  0.999966      0.001607         0.071815
1 -0.018424   0.007675  0.018434  -0.006675  0.00001    0.001  0.000768  0.028300  0.999941      0.006731  0.999942      0.006735         0.199602
2  0.007740   0.038565 -0.007730  -0.034565  0.00001    0.004  0.000324  0.001363  1.000000      0.000000  1.000000      0.000005         0.098334
3 -0.007581   0.041715  0.007591  -0.037715  0.00001    0.004  0.000350  0.001481  1.000000      0.000000  1.000000      0.000006         0.105995
--------------------------------------------------
